/*--------------------------------*- C++ -*----------------------------------*\
  =========                 |
  \\      /  F ield         | OpenFOAM: The Open Source CFD Toolbox
   \\    /   O peration     | Website:  https://openfoam.org
    \\  /    A nd           | Version:  7
     \\/     M anipulation  |
\*---------------------------------------------------------------------------*/
FoamFile
{
    version     2.0;
    format      ascii;
    class       polyBoundaryMesh;
    location    "constant/polyMesh";
    object      boundary;
}
// * * * * * * * * * * * * * * * * * * * * * * * * * * * * * * * * * * * * * //

6
(
    bottom
    {
        type            empty;
        inGroups        List<word> 1(empty);
        nFaces          0;
        startFace       8270;
    }
    inlet
    {
        type            patch;
        nFaces          60;
        startFace       8270;
    }
    outlet
    {
        type            patch;
        nFaces          70;
        startFace       8330;
    }
    obstacle
    {
        type            wall;
        inGroups        List<word> 1(wall);
        nFaces          60;
        startFace       8400;
    }
    wedgefront
    {
        type            wedge;
        inGroups        List<word> 1(wedge);
        nFaces          4200;
        startFace       8460;
    }
    wedgeback
    {
        type            wedge;
        inGroups        List<word> 1(wedge);
        nFaces          4200;
        startFace       12660;
    }
)

// ************************************************************************* //
