/*--------------------------------*- C++ -*----------------------------------*\
| =========                 |                                                 |
| \\      /  F ield         | OpenFOAM: The Open Source CFD Toolbox           |
|  \\    /   O peration     | Version:  4.x                                   |
|   \\  /    A nd           | Web:      www.OpenFOAM.org                      |
|    \\/     M anipulation  |                                                 |
\*---------------------------------------------------------------------------*/
FoamFile
{
    version     2.0;
    format      ascii;
    class       volScalarField;
    object      p;
}
// * * * * * * * * * * * * * * * * * * * * * * * * * * * * * * * * * * * * * //

dimensions      [1 -1 -2 0 0 0 0];

//speed of sound at sea level 340.29
//mach number M=U/a

//air properties at sea level
//p 101325
//rho 1.225
//T 288 K
//mu 0.00001789
//gamma 1.4
//R_air 287.057

internalField   uniform 5000;

boundaryField
{
    inlet
    {
        type            fixedValue;
		value			uniform 5000;
    }

    outlet
    {
        type            zeroGradient;
    }

    bottom
    {
        type             empty;
    }
    
    obstacle
    {
        type            zeroGradient;
    }


    wedgefront
    {
        type            wedge;
    }
    
    wedgeback
    {
        type            wedge;
    }
    
}

// ************************************************************************* //
